Version 4
SHEET 1 988 680
WIRE 384 48 240 48
WIRE 240 80 240 48
WIRE 272 80 240 80
WIRE 272 128 272 80
WIRE 272 128 240 128
WIRE 192 160 128 160
WIRE 128 208 128 160
WIRE 128 208 16 208
WIRE 240 208 240 176
WIRE 288 208 240 208
WIRE 240 224 240 208
WIRE 272 272 240 272
WIRE 128 304 128 208
WIRE 192 304 128 304
WIRE 272 304 272 272
WIRE 272 304 240 304
FLAG 240 320 0
FLAG 384 128 0
FLAG 16 288 0
SYMBOL pmos4 192 80 R0
WINDOW 123 56 100 Left 2
SYMATTR Value2 l=400n w=10u
SYMATTR InstName M1
SYMATTR Value PMOS_VTH
SYMBOL nmos4 192 224 R0
WINDOW 123 56 100 Left 2
SYMATTR Value2 l=100n w=10u
SYMATTR InstName M2
SYMATTR Value NMOS_VTH
SYMBOL voltage 384 32 R0
WINDOW 123 0 0 Left 0
WINDOW 39 0 0 Left 0
SYMATTR InstName V1
SYMATTR Value 1.8
SYMBOL voltage 16 192 R0
WINDOW 123 0 0 Left 0
WINDOW 39 0 0 Left 0
SYMATTR InstName V2
SYMATTR Value 1.8
TEXT -232 368 Left 2 !.inc "C:\\Users\\rajhb\\OneDrive\\Desktop\\Old files\\45 nm\\models_ff\\NMOS_VTH.inc"
TEXT -224 400 Left 2 !.inc "C:\\Users\\rajhb\\OneDrive\\Desktop\\Old files\\45 nm\\models_ff\\PMOS_VTH.inc"
TEXT 496 264 Left 2 !.dc V2 0 1.8 .1
