Version 4
SHEET 1 880 680
WIRE 320 -96 208 -96
WIRE 320 -80 320 -96
WIRE 208 -32 208 -96
WIRE 16 48 -96 48
WIRE 160 48 16 48
WIRE 208 80 208 64
WIRE 64 160 -32 160
WIRE 160 160 64 160
WIRE -32 176 -32 160
WIRE 208 192 208 176
WIRE 208 192 144 192
WIRE 304 192 208 192
WIRE 64 208 64 160
WIRE 256 208 64 208
WIRE 16 272 16 48
WIRE 96 272 16 272
WIRE 256 272 256 208
WIRE 240 288 144 288
WIRE 304 288 240 288
WIRE 240 304 240 288
FLAG 320 0 0
FLAG -96 128 0
FLAG -32 256 0
FLAG 240 304 0
SYMBOL nmos 96 192 R0
SYMATTR InstName M1
SYMBOL nmos 256 192 R0
SYMATTR InstName M2
SYMBOL pmos 160 80 R0
SYMATTR InstName M3
SYMBOL pmos 160 -32 R0
SYMATTR InstName M4
SYMBOL voltage 320 -96 R0
WINDOW 123 0 0 Left 0
WINDOW 39 0 0 Left 0
SYMATTR InstName V1
SYMATTR Value 5
SYMBOL voltage -96 32 R0
WINDOW 123 0 0 Left 0
WINDOW 39 0 0 Left 0
SYMATTR InstName V2
SYMATTR Value PULSE(0 5 0 5n 5n 40n 80n)
SYMBOL voltage -32 160 R0
WINDOW 123 0 0 Left 0
WINDOW 39 0 0 Left 0
SYMATTR InstName V3
SYMATTR Value PULSE(0 5 0 5n 5n 20n 40n)
TEXT -112 296 Left 2 !.tran 160n
